
---------- Begin Simulation Statistics ----------
sim_seconds                                  0.000403                       # Number of seconds simulated
sim_ticks                                   402673000                       # Number of ticks simulated
final_tick                                  402673000                       # Number of ticks from beginning of simulation (restored from checkpoints and never reset)
sim_freq                                 1000000000000                       # Frequency of simulated ticks
host_inst_rate                                 282362                       # Simulator instruction rate (inst/s)
host_op_rate                                   282262                       # Simulator op (including micro ops) rate (op/s)
host_tick_rate                            20476394123                       # Simulator tick rate (ticks/s)
host_mem_usage                                 639584                       # Number of bytes of host memory used
host_seconds                                     0.02                       # Real time elapsed on the host
sim_insts                                        5549                       # Number of instructions simulated
sim_ops                                          5549                       # Number of ops (including micro ops) simulated
system.voltage_domain.voltage                       1                       # Voltage in Volts
system.clk_domain.clock                          1000                       # Clock period in ticks
system.mem_ctrls.pwrStateResidencyTicks::UNDEFINED    402673000                       # Cumulative time (in ticks) in various power states
system.mem_ctrls.bytes_read::.cpu.inst          22248                       # Number of bytes read from this memory
system.mem_ctrls.bytes_read::.cpu.data           6961                       # Number of bytes read from this memory
system.mem_ctrls.bytes_read::total              29209                       # Number of bytes read from this memory
system.mem_ctrls.bytes_inst_read::.cpu.inst        22248                       # Number of instructions bytes read from this memory
system.mem_ctrls.bytes_inst_read::total         22248                       # Number of instructions bytes read from this memory
system.mem_ctrls.bytes_written::.cpu.data         7113                       # Number of bytes written to this memory
system.mem_ctrls.bytes_written::total            7113                       # Number of bytes written to this memory
system.mem_ctrls.num_reads::.cpu.inst            5562                       # Number of read requests responded to by this memory
system.mem_ctrls.num_reads::.cpu.data            1013                       # Number of read requests responded to by this memory
system.mem_ctrls.num_reads::total                6575                       # Number of read requests responded to by this memory
system.mem_ctrls.num_writes::.cpu.data            939                       # Number of write requests responded to by this memory
system.mem_ctrls.num_writes::total                939                       # Number of write requests responded to by this memory
system.mem_ctrls.bw_read::.cpu.inst          55250787                       # Total read bandwidth from this memory (bytes/s)
system.mem_ctrls.bw_read::.cpu.data          17286980                       # Total read bandwidth from this memory (bytes/s)
system.mem_ctrls.bw_read::total              72537766                       # Total read bandwidth from this memory (bytes/s)
system.mem_ctrls.bw_inst_read::.cpu.inst     55250787                       # Instruction read bandwidth from this memory (bytes/s)
system.mem_ctrls.bw_inst_read::total         55250787                       # Instruction read bandwidth from this memory (bytes/s)
system.mem_ctrls.bw_write::.cpu.data         17664457                       # Write bandwidth from this memory (bytes/s)
system.mem_ctrls.bw_write::total             17664457                       # Write bandwidth from this memory (bytes/s)
system.mem_ctrls.bw_total::.cpu.inst         55250787                       # Total bandwidth to/from this memory (bytes/s)
system.mem_ctrls.bw_total::.cpu.data         34951437                       # Total bandwidth to/from this memory (bytes/s)
system.mem_ctrls.bw_total::total             90202224                       # Total bandwidth to/from this memory (bytes/s)
system.mem_ctrls.avgPriority_.cpu.inst::samples      5563.00                       # Average QoS priority value for accepted requests
system.mem_ctrls.avgPriority_.cpu.data::samples      1017.00                       # Average QoS priority value for accepted requests
system.mem_ctrls.priorityMinLatency      0.000000018750                       # per QoS priority minimum request to response latency (s)
system.mem_ctrls.priorityMaxLatency      0.000273210500                       # per QoS priority maximum request to response latency (s)
system.mem_ctrls.numReadWriteTurnArounds            7                       # Number of turnarounds from READ to WRITE
system.mem_ctrls.numWriteReadTurnArounds            7                       # Number of turnarounds from WRITE to READ
system.mem_ctrls.numStayReadState               13907                       # Number of times bus staying in READ state
system.mem_ctrls.numStayWriteState                105                       # Number of times bus staying in WRITE state
system.mem_ctrls.readReqs                        6576                       # Number of read requests accepted
system.mem_ctrls.writeReqs                        939                       # Number of write requests accepted
system.mem_ctrls.readBursts                      6576                       # Number of DRAM read bursts, including those serviced by the write queue
system.mem_ctrls.writeBursts                      939                       # Number of DRAM write bursts, including those merged in the write queue
system.mem_ctrls.bytesReadDRAM                 412032                       # Total number of bytes read from DRAM
system.mem_ctrls.bytesReadWrQ                    8832                       # Total number of bytes read from write queue
system.mem_ctrls.bytesWritten                    7168                       # Total number of bytes written to DRAM
system.mem_ctrls.bytesReadSys                   29213                       # Total read bytes from the system interface side
system.mem_ctrls.bytesWrittenSys                 7113                       # Total written bytes from the system interface side
system.mem_ctrls.servicedByWrQ                    138                       # Number of DRAM read bursts serviced by the write queue
system.mem_ctrls.mergedWrBursts                   797                       # Number of DRAM write bursts merged with an existing one
system.mem_ctrls.neitherReadNorWriteReqs            0                       # Number of requests that are neither read nor write
system.mem_ctrls.perBankRdBursts::0              1445                       # Per bank write bursts
system.mem_ctrls.perBankRdBursts::1               973                       # Per bank write bursts
system.mem_ctrls.perBankRdBursts::2              1028                       # Per bank write bursts
system.mem_ctrls.perBankRdBursts::3               334                       # Per bank write bursts
system.mem_ctrls.perBankRdBursts::4               492                       # Per bank write bursts
system.mem_ctrls.perBankRdBursts::5               728                       # Per bank write bursts
system.mem_ctrls.perBankRdBursts::6                80                       # Per bank write bursts
system.mem_ctrls.perBankRdBursts::7               175                       # Per bank write bursts
system.mem_ctrls.perBankRdBursts::8               336                       # Per bank write bursts
system.mem_ctrls.perBankRdBursts::9               264                       # Per bank write bursts
system.mem_ctrls.perBankRdBursts::10                0                       # Per bank write bursts
system.mem_ctrls.perBankRdBursts::11               36                       # Per bank write bursts
system.mem_ctrls.perBankRdBursts::12              354                       # Per bank write bursts
system.mem_ctrls.perBankRdBursts::13                8                       # Per bank write bursts
system.mem_ctrls.perBankRdBursts::14              185                       # Per bank write bursts
system.mem_ctrls.perBankRdBursts::15                0                       # Per bank write bursts
system.mem_ctrls.perBankWrBursts::0                 0                       # Per bank write bursts
system.mem_ctrls.perBankWrBursts::1                 0                       # Per bank write bursts
system.mem_ctrls.perBankWrBursts::2                 0                       # Per bank write bursts
system.mem_ctrls.perBankWrBursts::3                 0                       # Per bank write bursts
system.mem_ctrls.perBankWrBursts::4                 2                       # Per bank write bursts
system.mem_ctrls.perBankWrBursts::5                37                       # Per bank write bursts
system.mem_ctrls.perBankWrBursts::6                30                       # Per bank write bursts
system.mem_ctrls.perBankWrBursts::7                 0                       # Per bank write bursts
system.mem_ctrls.perBankWrBursts::8                 0                       # Per bank write bursts
system.mem_ctrls.perBankWrBursts::9                 0                       # Per bank write bursts
system.mem_ctrls.perBankWrBursts::10                0                       # Per bank write bursts
system.mem_ctrls.perBankWrBursts::11                0                       # Per bank write bursts
system.mem_ctrls.perBankWrBursts::12               35                       # Per bank write bursts
system.mem_ctrls.perBankWrBursts::13                8                       # Per bank write bursts
system.mem_ctrls.perBankWrBursts::14                0                       # Per bank write bursts
system.mem_ctrls.perBankWrBursts::15                0                       # Per bank write bursts
system.mem_ctrls.numRdRetry                         0                       # Number of times read queue was full causing retry
system.mem_ctrls.numWrRetry                         0                       # Number of times write queue was full causing retry
system.mem_ctrls.totGap                     402596000                       # Total gap between requests
system.mem_ctrls.readPktSize::0                    83                       # Read request sizes (log2)
system.mem_ctrls.readPktSize::1                     1                       # Read request sizes (log2)
system.mem_ctrls.readPktSize::2                  5702                       # Read request sizes (log2)
system.mem_ctrls.readPktSize::3                   790                       # Read request sizes (log2)
system.mem_ctrls.readPktSize::4                     0                       # Read request sizes (log2)
system.mem_ctrls.readPktSize::5                     0                       # Read request sizes (log2)
system.mem_ctrls.readPktSize::6                     0                       # Read request sizes (log2)
system.mem_ctrls.writePktSize::0                   17                       # Write request sizes (log2)
system.mem_ctrls.writePktSize::1                    0                       # Write request sizes (log2)
system.mem_ctrls.writePktSize::2                   70                       # Write request sizes (log2)
system.mem_ctrls.writePktSize::3                  852                       # Write request sizes (log2)
system.mem_ctrls.writePktSize::4                    0                       # Write request sizes (log2)
system.mem_ctrls.writePktSize::5                    0                       # Write request sizes (log2)
system.mem_ctrls.writePktSize::6                    0                       # Write request sizes (log2)
system.mem_ctrls.rdQLenPdf::0                    6438                       # What read queue length does an incoming req see
system.mem_ctrls.rdQLenPdf::1                       0                       # What read queue length does an incoming req see
system.mem_ctrls.rdQLenPdf::2                       0                       # What read queue length does an incoming req see
system.mem_ctrls.rdQLenPdf::3                       0                       # What read queue length does an incoming req see
system.mem_ctrls.rdQLenPdf::4                       0                       # What read queue length does an incoming req see
system.mem_ctrls.rdQLenPdf::5                       0                       # What read queue length does an incoming req see
system.mem_ctrls.rdQLenPdf::6                       0                       # What read queue length does an incoming req see
system.mem_ctrls.rdQLenPdf::7                       0                       # What read queue length does an incoming req see
system.mem_ctrls.rdQLenPdf::8                       0                       # What read queue length does an incoming req see
system.mem_ctrls.rdQLenPdf::9                       0                       # What read queue length does an incoming req see
system.mem_ctrls.rdQLenPdf::10                      0                       # What read queue length does an incoming req see
system.mem_ctrls.rdQLenPdf::11                      0                       # What read queue length does an incoming req see
system.mem_ctrls.rdQLenPdf::12                      0                       # What read queue length does an incoming req see
system.mem_ctrls.rdQLenPdf::13                      0                       # What read queue length does an incoming req see
system.mem_ctrls.rdQLenPdf::14                      0                       # What read queue length does an incoming req see
system.mem_ctrls.rdQLenPdf::15                      0                       # What read queue length does an incoming req see
system.mem_ctrls.rdQLenPdf::16                      0                       # What read queue length does an incoming req see
system.mem_ctrls.rdQLenPdf::17                      0                       # What read queue length does an incoming req see
system.mem_ctrls.rdQLenPdf::18                      0                       # What read queue length does an incoming req see
system.mem_ctrls.rdQLenPdf::19                      0                       # What read queue length does an incoming req see
system.mem_ctrls.rdQLenPdf::20                      0                       # What read queue length does an incoming req see
system.mem_ctrls.rdQLenPdf::21                      0                       # What read queue length does an incoming req see
system.mem_ctrls.rdQLenPdf::22                      0                       # What read queue length does an incoming req see
system.mem_ctrls.rdQLenPdf::23                      0                       # What read queue length does an incoming req see
system.mem_ctrls.rdQLenPdf::24                      0                       # What read queue length does an incoming req see
system.mem_ctrls.rdQLenPdf::25                      0                       # What read queue length does an incoming req see
system.mem_ctrls.rdQLenPdf::26                      0                       # What read queue length does an incoming req see
system.mem_ctrls.rdQLenPdf::27                      0                       # What read queue length does an incoming req see
system.mem_ctrls.rdQLenPdf::28                      0                       # What read queue length does an incoming req see
system.mem_ctrls.rdQLenPdf::29                      0                       # What read queue length does an incoming req see
system.mem_ctrls.rdQLenPdf::30                      0                       # What read queue length does an incoming req see
system.mem_ctrls.rdQLenPdf::31                      0                       # What read queue length does an incoming req see
system.mem_ctrls.wrQLenPdf::0                       1                       # What write queue length does an incoming req see
system.mem_ctrls.wrQLenPdf::1                       1                       # What write queue length does an incoming req see
system.mem_ctrls.wrQLenPdf::2                       1                       # What write queue length does an incoming req see
system.mem_ctrls.wrQLenPdf::3                       1                       # What write queue length does an incoming req see
system.mem_ctrls.wrQLenPdf::4                       1                       # What write queue length does an incoming req see
system.mem_ctrls.wrQLenPdf::5                       1                       # What write queue length does an incoming req see
system.mem_ctrls.wrQLenPdf::6                       1                       # What write queue length does an incoming req see
system.mem_ctrls.wrQLenPdf::7                       1                       # What write queue length does an incoming req see
system.mem_ctrls.wrQLenPdf::8                       1                       # What write queue length does an incoming req see
system.mem_ctrls.wrQLenPdf::9                       1                       # What write queue length does an incoming req see
system.mem_ctrls.wrQLenPdf::10                      1                       # What write queue length does an incoming req see
system.mem_ctrls.wrQLenPdf::11                      1                       # What write queue length does an incoming req see
system.mem_ctrls.wrQLenPdf::12                      1                       # What write queue length does an incoming req see
system.mem_ctrls.wrQLenPdf::13                      1                       # What write queue length does an incoming req see
system.mem_ctrls.wrQLenPdf::14                      1                       # What write queue length does an incoming req see
system.mem_ctrls.wrQLenPdf::15                      1                       # What write queue length does an incoming req see
system.mem_ctrls.wrQLenPdf::16                      1                       # What write queue length does an incoming req see
system.mem_ctrls.wrQLenPdf::17                      8                       # What write queue length does an incoming req see
system.mem_ctrls.wrQLenPdf::18                      8                       # What write queue length does an incoming req see
system.mem_ctrls.wrQLenPdf::19                      8                       # What write queue length does an incoming req see
system.mem_ctrls.wrQLenPdf::20                      8                       # What write queue length does an incoming req see
system.mem_ctrls.wrQLenPdf::21                      8                       # What write queue length does an incoming req see
system.mem_ctrls.wrQLenPdf::22                      8                       # What write queue length does an incoming req see
system.mem_ctrls.wrQLenPdf::23                      8                       # What write queue length does an incoming req see
system.mem_ctrls.wrQLenPdf::24                      8                       # What write queue length does an incoming req see
system.mem_ctrls.wrQLenPdf::25                      8                       # What write queue length does an incoming req see
system.mem_ctrls.wrQLenPdf::26                      8                       # What write queue length does an incoming req see
system.mem_ctrls.wrQLenPdf::27                      8                       # What write queue length does an incoming req see
system.mem_ctrls.wrQLenPdf::28                      8                       # What write queue length does an incoming req see
system.mem_ctrls.wrQLenPdf::29                      8                       # What write queue length does an incoming req see
system.mem_ctrls.wrQLenPdf::30                      7                       # What write queue length does an incoming req see
system.mem_ctrls.wrQLenPdf::31                      7                       # What write queue length does an incoming req see
system.mem_ctrls.wrQLenPdf::32                      7                       # What write queue length does an incoming req see
system.mem_ctrls.wrQLenPdf::33                      0                       # What write queue length does an incoming req see
system.mem_ctrls.wrQLenPdf::34                      0                       # What write queue length does an incoming req see
system.mem_ctrls.wrQLenPdf::35                      0                       # What write queue length does an incoming req see
system.mem_ctrls.wrQLenPdf::36                      0                       # What write queue length does an incoming req see
system.mem_ctrls.wrQLenPdf::37                      0                       # What write queue length does an incoming req see
system.mem_ctrls.wrQLenPdf::38                      0                       # What write queue length does an incoming req see
system.mem_ctrls.wrQLenPdf::39                      0                       # What write queue length does an incoming req see
system.mem_ctrls.wrQLenPdf::40                      0                       # What write queue length does an incoming req see
system.mem_ctrls.wrQLenPdf::41                      0                       # What write queue length does an incoming req see
system.mem_ctrls.wrQLenPdf::42                      0                       # What write queue length does an incoming req see
system.mem_ctrls.wrQLenPdf::43                      0                       # What write queue length does an incoming req see
system.mem_ctrls.wrQLenPdf::44                      0                       # What write queue length does an incoming req see
system.mem_ctrls.wrQLenPdf::45                      0                       # What write queue length does an incoming req see
system.mem_ctrls.wrQLenPdf::46                      0                       # What write queue length does an incoming req see
system.mem_ctrls.wrQLenPdf::47                      0                       # What write queue length does an incoming req see
system.mem_ctrls.wrQLenPdf::48                      0                       # What write queue length does an incoming req see
system.mem_ctrls.wrQLenPdf::49                      0                       # What write queue length does an incoming req see
system.mem_ctrls.wrQLenPdf::50                      0                       # What write queue length does an incoming req see
system.mem_ctrls.wrQLenPdf::51                      0                       # What write queue length does an incoming req see
system.mem_ctrls.wrQLenPdf::52                      0                       # What write queue length does an incoming req see
system.mem_ctrls.wrQLenPdf::53                      0                       # What write queue length does an incoming req see
system.mem_ctrls.wrQLenPdf::54                      0                       # What write queue length does an incoming req see
system.mem_ctrls.wrQLenPdf::55                      0                       # What write queue length does an incoming req see
system.mem_ctrls.wrQLenPdf::56                      0                       # What write queue length does an incoming req see
system.mem_ctrls.wrQLenPdf::57                      0                       # What write queue length does an incoming req see
system.mem_ctrls.wrQLenPdf::58                      0                       # What write queue length does an incoming req see
system.mem_ctrls.wrQLenPdf::59                      0                       # What write queue length does an incoming req see
system.mem_ctrls.wrQLenPdf::60                      0                       # What write queue length does an incoming req see
system.mem_ctrls.wrQLenPdf::61                      0                       # What write queue length does an incoming req see
system.mem_ctrls.wrQLenPdf::62                      0                       # What write queue length does an incoming req see
system.mem_ctrls.wrQLenPdf::63                      0                       # What write queue length does an incoming req see
system.mem_ctrls.bytesPerActivate::samples          662                       # Bytes accessed per row activation
system.mem_ctrls.bytesPerActivate::mean    629.848943                       # Bytes accessed per row activation
system.mem_ctrls.bytesPerActivate::gmean   436.535373                       # Bytes accessed per row activation
system.mem_ctrls.bytesPerActivate::stdev   393.014481                       # Bytes accessed per row activation
system.mem_ctrls.bytesPerActivate::0-127           95     14.35%     14.35% # Bytes accessed per row activation
system.mem_ctrls.bytesPerActivate::128-255           78     11.78%     26.13% # Bytes accessed per row activation
system.mem_ctrls.bytesPerActivate::256-383           47      7.10%     33.23% # Bytes accessed per row activation
system.mem_ctrls.bytesPerActivate::384-511           41      6.19%     39.43% # Bytes accessed per row activation
system.mem_ctrls.bytesPerActivate::512-639           47      7.10%     46.53% # Bytes accessed per row activation
system.mem_ctrls.bytesPerActivate::640-767           31      4.68%     51.21% # Bytes accessed per row activation
system.mem_ctrls.bytesPerActivate::768-895           23      3.47%     54.68% # Bytes accessed per row activation
system.mem_ctrls.bytesPerActivate::896-1023           28      4.23%     58.91% # Bytes accessed per row activation
system.mem_ctrls.bytesPerActivate::1024-1151          272     41.09%    100.00% # Bytes accessed per row activation
system.mem_ctrls.bytesPerActivate::total          662                       # Bytes accessed per row activation
system.mem_ctrls.rdPerTurnAround::samples            7                       # Reads before turning the bus around for writes
system.mem_ctrls.rdPerTurnAround::mean     803.571429                       # Reads before turning the bus around for writes
system.mem_ctrls.rdPerTurnAround::gmean    673.605697                       # Reads before turning the bus around for writes
system.mem_ctrls.rdPerTurnAround::stdev    528.922129                       # Reads before turning the bus around for writes
system.mem_ctrls.rdPerTurnAround::320-383            2     28.57%     28.57% # Reads before turning the bus around for writes
system.mem_ctrls.rdPerTurnAround::448-511            1     14.29%     42.86% # Reads before turning the bus around for writes
system.mem_ctrls.rdPerTurnAround::576-639            1     14.29%     57.14% # Reads before turning the bus around for writes
system.mem_ctrls.rdPerTurnAround::896-959            1     14.29%     71.43% # Reads before turning the bus around for writes
system.mem_ctrls.rdPerTurnAround::1152-1215            1     14.29%     85.71% # Reads before turning the bus around for writes
system.mem_ctrls.rdPerTurnAround::1728-1791            1     14.29%    100.00% # Reads before turning the bus around for writes
system.mem_ctrls.rdPerTurnAround::total             7                       # Reads before turning the bus around for writes
system.mem_ctrls.wrPerTurnAround::samples            7                       # Writes before turning the bus around for reads
system.mem_ctrls.wrPerTurnAround::mean             16                       # Writes before turning the bus around for reads
system.mem_ctrls.wrPerTurnAround::gmean     16.000000                       # Writes before turning the bus around for reads
system.mem_ctrls.wrPerTurnAround::16                7    100.00%    100.00% # Writes before turning the bus around for reads
system.mem_ctrls.wrPerTurnAround::total             7                       # Writes before turning the bus around for reads
system.mem_ctrls.masterReadBytes::.cpu.inst        22252                       # Per-master bytes read from memory
system.mem_ctrls.masterReadBytes::.cpu.data         6073                       # Per-master bytes read from memory
system.mem_ctrls.masterWriteBytes::.cpu.data          852                       # Per-master bytes write to memory
system.mem_ctrls.masterReadRate::.cpu.inst 55260720.237016141415                       # Per-master bytes read from memory rate (Bytes/sec)
system.mem_ctrls.masterReadRate::.cpu.data 15081716.429956814274                       # Per-master bytes read from memory rate (Bytes/sec)
system.mem_ctrls.masterWriteRate::.cpu.data 2115860.760468171444                       # Per-master bytes write to memory rate (Bytes/sec)
system.mem_ctrls.masterReadAccesses::.cpu.inst         5563                       # Per-master read serviced memory accesses
system.mem_ctrls.masterReadAccesses::.cpu.data         1013                       # Per-master read serviced memory accesses
system.mem_ctrls.masterWriteAccesses::.cpu.data          939                       # Per-master write serviced memory accesses
system.mem_ctrls.masterReadTotalLat::.cpu.inst    156693250                       # Per-master read total memory access latency
system.mem_ctrls.masterReadTotalLat::.cpu.data     28622250                       # Per-master read total memory access latency
system.mem_ctrls.masterWriteTotalLat::.cpu.data   6410120250                       # Per-master write total memory access latency
system.mem_ctrls.masterReadAvgLat::.cpu.inst     28167.04                       # Per-master read average memory access latency
system.mem_ctrls.masterReadAvgLat::.cpu.data     28254.94                       # Per-master read average memory access latency
system.mem_ctrls.masterWriteAvgLat::.cpu.data   6826539.14                       # Per-master write average memory access latency
system.mem_ctrls.totQLat                     64603000                       # Total ticks spent queuing
system.mem_ctrls.totMemAccLat               185315500                       # Total ticks spent from burst creation until serviced by the DRAM
system.mem_ctrls.totBusLat                   32190000                       # Total ticks spent in databus transfers
system.mem_ctrls.avgQLat                     10034.64                       # Average queueing delay per DRAM burst
system.mem_ctrls.avgBusLat                    5000.00                       # Average bus latency per DRAM burst
system.mem_ctrls.avgMemAccLat                28784.64                       # Average memory access latency per DRAM burst
system.mem_ctrls.avgRdBW                      1023.24                       # Average DRAM read bandwidth in MiByte/s
system.mem_ctrls.avgWrBW                        17.80                       # Average achieved write bandwidth in MiByte/s
system.mem_ctrls.avgRdBWSys                     72.55                       # Average system read bandwidth in MiByte/s
system.mem_ctrls.avgWrBWSys                     17.66                       # Average system write bandwidth in MiByte/s
system.mem_ctrls.peakBW                      12800.00                       # Theoretical peak bandwidth in MiByte/s
system.mem_ctrls.busUtil                         8.13                       # Data bus utilization in percentage
system.mem_ctrls.busUtilRead                     7.99                       # Data bus utilization in percentage for reads
system.mem_ctrls.busUtilWrite                    0.14                       # Data bus utilization in percentage for writes
system.mem_ctrls.avgRdQLen                       1.00                       # Average read queue length when enqueuing
system.mem_ctrls.avgWrQLen                      25.20                       # Average write queue length when enqueuing
system.mem_ctrls.readRowHits                     5786                       # Number of row buffer hits during reads
system.mem_ctrls.writeRowHits                      97                       # Number of row buffer hits during writes
system.mem_ctrls.readRowHitRate                 89.87                       # Row buffer hit rate for reads
system.mem_ctrls.writeRowHitRate                68.31                       # Row buffer hit rate for writes
system.mem_ctrls.avgGap                      53572.32                       # Average gap between requests
system.mem_ctrls.pageHitRate                    89.41                       # Row buffer hit rate, read and write combined
system.mem_ctrls_0.actEnergy                  3862740                       # Energy for activate commands per rank (pJ)
system.mem_ctrls_0.preEnergy                  2034120                       # Energy for precharge commands per rank (pJ)
system.mem_ctrls_0.readEnergy                37513560                       # Energy for read commands per rank (pJ)
system.mem_ctrls_0.writeEnergy                 360180                       # Energy for write commands per rank (pJ)
system.mem_ctrls_0.refreshEnergy         31346640.000000                       # Energy for refresh commands per rank (pJ)
system.mem_ctrls_0.actBackEnergy             73015860                       # Energy for active background per rank (pJ)
system.mem_ctrls_0.preBackEnergy               943680                       # Energy for precharge background per rank (pJ)
system.mem_ctrls_0.actPowerDownEnergy       108707550                       # Energy for active power-down per rank (pJ)
system.mem_ctrls_0.prePowerDownEnergy          652800                       # Energy for precharge power-down per rank (pJ)
system.mem_ctrls_0.selfRefreshEnergy                0                       # Energy for self refresh per rank (pJ)
system.mem_ctrls_0.totalEnergy              258437130                       # Total energy per rank (pJ)
system.mem_ctrls_0.averagePower            641.803970                       # Core power per rank (mW)
system.mem_ctrls_0.totalIdleTime            240216000                       # Total Idle time Per DRAM Rank
system.mem_ctrls_0.memoryStateTime::IDLE       372000                       # Time in different power states
system.mem_ctrls_0.memoryStateTime::REF      13260000                       # Time in different power states
system.mem_ctrls_0.memoryStateTime::SREF            0                       # Time in different power states
system.mem_ctrls_0.memoryStateTime::PRE_PDN      1701500                       # Time in different power states
system.mem_ctrls_0.memoryStateTime::ACT     148825000                       # Time in different power states
system.mem_ctrls_0.memoryStateTime::ACT_PDN    238514500                       # Time in different power states
system.mem_ctrls_1.actEnergy                   899640                       # Energy for activate commands per rank (pJ)
system.mem_ctrls_1.preEnergy                   474375                       # Energy for precharge commands per rank (pJ)
system.mem_ctrls_1.readEnergy                 8446620                       # Energy for read commands per rank (pJ)
system.mem_ctrls_1.writeEnergy                 224460                       # Energy for write commands per rank (pJ)
system.mem_ctrls_1.refreshEnergy         29502720.000000                       # Energy for refresh commands per rank (pJ)
system.mem_ctrls_1.actBackEnergy             25733790                       # Energy for active background per rank (pJ)
system.mem_ctrls_1.preBackEnergy              2194080                       # Energy for precharge background per rank (pJ)
system.mem_ctrls_1.actPowerDownEnergy       105045300                       # Energy for active power-down per rank (pJ)
system.mem_ctrls_1.prePowerDownEnergy        32946720                       # Energy for precharge power-down per rank (pJ)
system.mem_ctrls_1.selfRefreshEnergy          8608800                       # Energy for self refresh per rank (pJ)
system.mem_ctrls_1.totalEnergy              214076505                       # Total energy per rank (pJ)
system.mem_ctrls_1.averagePower            531.638588                       # Core power per rank (mW)
system.mem_ctrls_1.totalIdleTime            339065000                       # Total Idle time Per DRAM Rank
system.mem_ctrls_1.memoryStateTime::IDLE      4201000                       # Time in different power states
system.mem_ctrls_1.memoryStateTime::REF      12480000                       # Time in different power states
system.mem_ctrls_1.memoryStateTime::SREF     24365750                       # Time in different power states
system.mem_ctrls_1.memoryStateTime::PRE_PDN     85800750                       # Time in different power states
system.mem_ctrls_1.memoryStateTime::ACT      45374750                       # Time in different power states
system.mem_ctrls_1.memoryStateTime::ACT_PDN    230450750                       # Time in different power states
system.pwrStateResidencyTicks::UNDEFINED    402673000                       # Cumulative time (in ticks) in various power states
system.cpu_voltage_domain.voltage                   1                       # Voltage in Volts
system.cpu_clk_domain.clock                       500                       # Clock period in ticks
system.cpu.dtb.fetch_hits                           0                       # ITB hits
system.cpu.dtb.fetch_misses                         0                       # ITB misses
system.cpu.dtb.fetch_acv                            0                       # ITB acv
system.cpu.dtb.fetch_accesses                       0                       # ITB accesses
system.cpu.dtb.read_hits                         1013                       # DTB read hits
system.cpu.dtb.read_misses                          8                       # DTB read misses
system.cpu.dtb.read_acv                             0                       # DTB read access violations
system.cpu.dtb.read_accesses                     1021                       # DTB read accesses
system.cpu.dtb.write_hits                         939                       # DTB write hits
system.cpu.dtb.write_misses                         5                       # DTB write misses
system.cpu.dtb.write_acv                            0                       # DTB write access violations
system.cpu.dtb.write_accesses                     944                       # DTB write accesses
system.cpu.dtb.data_hits                         1952                       # DTB hits
system.cpu.dtb.data_misses                         13                       # DTB misses
system.cpu.dtb.data_acv                             0                       # DTB access violations
system.cpu.dtb.data_accesses                     1965                       # DTB accesses
system.cpu.itb.fetch_hits                        5563                       # ITB hits
system.cpu.itb.fetch_misses                        21                       # ITB misses
system.cpu.itb.fetch_acv                            0                       # ITB acv
system.cpu.itb.fetch_accesses                    5584                       # ITB accesses
system.cpu.itb.read_hits                            0                       # DTB read hits
system.cpu.itb.read_misses                          0                       # DTB read misses
system.cpu.itb.read_acv                             0                       # DTB read access violations
system.cpu.itb.read_accesses                        0                       # DTB read accesses
system.cpu.itb.write_hits                           0                       # DTB write hits
system.cpu.itb.write_misses                         0                       # DTB write misses
system.cpu.itb.write_acv                            0                       # DTB write access violations
system.cpu.itb.write_accesses                       0                       # DTB write accesses
system.cpu.itb.data_hits                            0                       # DTB hits
system.cpu.itb.data_misses                          0                       # DTB misses
system.cpu.itb.data_acv                             0                       # DTB access violations
system.cpu.itb.data_accesses                        0                       # DTB accesses
system.cpu.workload.numSyscalls                    11                       # Number of system calls
system.cpu.pwrStateResidencyTicks::ON       402673000                       # Cumulative time (in ticks) in various power states
system.cpu.numCycles                           805346                       # number of cpu cycles simulated
system.cpu.numWorkItemsStarted                      0                       # number of work items this cpu started
system.cpu.numWorkItemsCompleted                    0                       # number of work items this cpu completed
system.cpu.committedInsts                        5549                       # Number of instructions committed
system.cpu.committedOps                          5549                       # Number of ops (including micro ops) committed
system.cpu.num_int_alu_accesses                  5235                       # Number of integer alu accesses
system.cpu.num_fp_alu_accesses                     50                       # Number of float alu accesses
system.cpu.num_vec_alu_accesses                     0                       # Number of vector alu accesses
system.cpu.num_func_calls                         213                       # number of times a function call or return occured
system.cpu.num_conditional_control_insts          717                       # number of instructions that are conditional controls
system.cpu.num_int_insts                         5235                       # number of integer instructions
system.cpu.num_fp_insts                            50                       # number of float instructions
system.cpu.num_vec_insts                            0                       # number of vector instructions
system.cpu.num_int_register_reads                7043                       # number of times the integer registers were read
system.cpu.num_int_register_writes               3466                       # number of times the integer registers were written
system.cpu.num_fp_register_reads                   38                       # number of times the floating registers were read
system.cpu.num_fp_register_writes                  22                       # number of times the floating registers were written
system.cpu.num_vec_register_reads                   0                       # number of times the vector registers were read
system.cpu.num_vec_register_writes                  0                       # number of times the vector registers were written
system.cpu.num_mem_refs                          1965                       # number of memory refs
system.cpu.num_load_insts                        1021                       # Number of load instructions
system.cpu.num_store_insts                        944                       # Number of store instructions
system.cpu.num_idle_cycles                          0                       # Number of idle cycles
system.cpu.num_busy_cycles                     805346                       # Number of busy cycles
system.cpu.not_idle_fraction                        1                       # Percentage of non-idle cycles
system.cpu.idle_fraction                            0                       # Percentage of idle cycles
system.cpu.Branches                              1017                       # Number of branches fetched
system.cpu.op_class::No_OpClass                   205      3.69%      3.69% # Class of executed instruction
system.cpu.op_class::IntAlu                      3354     60.30%     63.99% # Class of executed instruction
system.cpu.op_class::IntMult                        3      0.05%     64.04% # Class of executed instruction
system.cpu.op_class::IntDiv                         0      0.00%     64.04% # Class of executed instruction
system.cpu.op_class::FloatAdd                      12      0.22%     64.26% # Class of executed instruction
system.cpu.op_class::FloatCmp                       0      0.00%     64.26% # Class of executed instruction
system.cpu.op_class::FloatCvt                       8      0.14%     64.40% # Class of executed instruction
system.cpu.op_class::FloatMult                      0      0.00%     64.40% # Class of executed instruction
system.cpu.op_class::FloatMultAcc                   0      0.00%     64.40% # Class of executed instruction
system.cpu.op_class::FloatDiv                       2      0.04%     64.44% # Class of executed instruction
system.cpu.op_class::FloatMisc                      0      0.00%     64.44% # Class of executed instruction
system.cpu.op_class::FloatSqrt                      0      0.00%     64.44% # Class of executed instruction
system.cpu.op_class::SimdAdd                        0      0.00%     64.44% # Class of executed instruction
system.cpu.op_class::SimdAddAcc                     0      0.00%     64.44% # Class of executed instruction
system.cpu.op_class::SimdAlu                        0      0.00%     64.44% # Class of executed instruction
system.cpu.op_class::SimdCmp                        0      0.00%     64.44% # Class of executed instruction
system.cpu.op_class::SimdCvt                        0      0.00%     64.44% # Class of executed instruction
system.cpu.op_class::SimdMisc                       0      0.00%     64.44% # Class of executed instruction
system.cpu.op_class::SimdMult                       0      0.00%     64.44% # Class of executed instruction
system.cpu.op_class::SimdMultAcc                    0      0.00%     64.44% # Class of executed instruction
system.cpu.op_class::SimdShift                      0      0.00%     64.44% # Class of executed instruction
system.cpu.op_class::SimdShiftAcc                   0      0.00%     64.44% # Class of executed instruction
system.cpu.op_class::SimdSqrt                       0      0.00%     64.44% # Class of executed instruction
system.cpu.op_class::SimdFloatAdd                   0      0.00%     64.44% # Class of executed instruction
system.cpu.op_class::SimdFloatAlu                   0      0.00%     64.44% # Class of executed instruction
system.cpu.op_class::SimdFloatCmp                   0      0.00%     64.44% # Class of executed instruction
system.cpu.op_class::SimdFloatCvt                   0      0.00%     64.44% # Class of executed instruction
system.cpu.op_class::SimdFloatDiv                   0      0.00%     64.44% # Class of executed instruction
system.cpu.op_class::SimdFloatMisc                  0      0.00%     64.44% # Class of executed instruction
system.cpu.op_class::SimdFloatMult                  0      0.00%     64.44% # Class of executed instruction
system.cpu.op_class::SimdFloatMultAcc               0      0.00%     64.44% # Class of executed instruction
system.cpu.op_class::SimdFloatSqrt                  0      0.00%     64.44% # Class of executed instruction
system.cpu.op_class::SimdAes                        0      0.00%     64.44% # Class of executed instruction
system.cpu.op_class::SimdAesMix                     0      0.00%     64.44% # Class of executed instruction
system.cpu.op_class::SimdSha1Hash                   0      0.00%     64.44% # Class of executed instruction
system.cpu.op_class::SimdSha1Hash2                  0      0.00%     64.44% # Class of executed instruction
system.cpu.op_class::SimdSha256Hash                 0      0.00%     64.44% # Class of executed instruction
system.cpu.op_class::SimdSha256Hash2                0      0.00%     64.44% # Class of executed instruction
system.cpu.op_class::SimdShaSigma2                  0      0.00%     64.44% # Class of executed instruction
system.cpu.op_class::SimdShaSigma3                  0      0.00%     64.44% # Class of executed instruction
system.cpu.op_class::MemRead                     1027     18.46%     82.90% # Class of executed instruction
system.cpu.op_class::MemWrite                     923     16.59%     99.50% # Class of executed instruction
system.cpu.op_class::FloatMemRead                   6      0.11%     99.60% # Class of executed instruction
system.cpu.op_class::FloatMemWrite                 22      0.40%    100.00% # Class of executed instruction
system.cpu.op_class::IprAccess                      0      0.00%    100.00% # Class of executed instruction
system.cpu.op_class::InstPrefetch                   0      0.00%    100.00% # Class of executed instruction
system.cpu.op_class::total                       5562                       # Class of executed instruction
system.membus.snoop_filter.tot_requests             0                       # Total number of requests made to the snoop filter.
system.membus.snoop_filter.hit_single_requests            0                       # Number of requests hitting in the snoop filter with a single holder of the requested data.
system.membus.snoop_filter.hit_multi_requests            0                       # Number of requests hitting in the snoop filter with multiple (>1) holders of the requested data.
system.membus.snoop_filter.tot_snoops               0                       # Total number of snoops made to the snoop filter.
system.membus.snoop_filter.hit_single_snoops            0                       # Number of snoops hitting in the snoop filter with a single holder of the requested data.
system.membus.snoop_filter.hit_multi_snoops            0                       # Number of snoops hitting in the snoop filter with multiple (>1) holders of the requested data.
system.membus.pwrStateResidencyTicks::UNDEFINED    402673000                       # Cumulative time (in ticks) in various power states
system.membus.trans_dist::ReadReq                6564                       # Transaction distribution
system.membus.trans_dist::ReadResp               6575                       # Transaction distribution
system.membus.trans_dist::WriteReq                927                       # Transaction distribution
system.membus.trans_dist::WriteResp               927                       # Transaction distribution
system.membus.trans_dist::LoadLockedReq            12                       # Transaction distribution
system.membus.trans_dist::StoreCondReq             12                       # Transaction distribution
system.membus.trans_dist::StoreCondResp            12                       # Transaction distribution
system.membus.pkt_count_system.cpu.icache_port::system.mem_ctrls.port        11125                       # Packet count per connected master and slave (bytes)
system.membus.pkt_count_system.cpu.dcache_port::system.mem_ctrls.port         3904                       # Packet count per connected master and slave (bytes)
system.membus.pkt_count::total                  15029                       # Packet count per connected master and slave (bytes)
system.membus.pkt_size_system.cpu.icache_port::system.mem_ctrls.port        22248                       # Cumulative packet size per connected master and slave (bytes)
system.membus.pkt_size_system.cpu.dcache_port::system.mem_ctrls.port        14074                       # Cumulative packet size per connected master and slave (bytes)
system.membus.pkt_size::total                   36322                       # Cumulative packet size per connected master and slave (bytes)
system.membus.snoops                                0                       # Total snoops (count)
system.membus.snoopTraffic                          0                       # Total snoop traffic (bytes)
system.membus.snoop_fanout::samples              7515                       # Request fanout histogram
system.membus.snoop_fanout::mean                    0                       # Request fanout histogram
system.membus.snoop_fanout::stdev                   0                       # Request fanout histogram
system.membus.snoop_fanout::underflows              0      0.00%      0.00% # Request fanout histogram
system.membus.snoop_fanout::0                    7515    100.00%    100.00% # Request fanout histogram
system.membus.snoop_fanout::1                       0      0.00%    100.00% # Request fanout histogram
system.membus.snoop_fanout::overflows               0      0.00%    100.00% # Request fanout histogram
system.membus.snoop_fanout::min_value               0                       # Request fanout histogram
system.membus.snoop_fanout::max_value               0                       # Request fanout histogram
system.membus.snoop_fanout::total                7515                       # Request fanout histogram
system.membus.reqLayer0.occupancy             8454000                       # Layer occupancy (ticks)
system.membus.reqLayer0.utilization               2.1                       # Layer utilization (%)
system.membus.respLayer1.occupancy           12636500                       # Layer occupancy (ticks)
system.membus.respLayer1.utilization              3.1                       # Layer utilization (%)
system.membus.respLayer2.occupancy            3245750                       # Layer occupancy (ticks)
system.membus.respLayer2.utilization              0.8                       # Layer utilization (%)

---------- End Simulation Statistics   ----------
